*Version : v0p1
* .SUBCKT NHVT11LL_CKT DRN GATE SRC BULK
* +
* .ENDS
* .SUBCKT PHVT11LL_CKT DRN GATE SRC BULK
* +
* .ENDS
.SUBCKT AC1CINV2_12TH40 A B CIN CO VDD VSS
XX21 CINN XOR CO VPW NHVT11LL_CKT W=410.00n L=40.00n
XX22 BNN XNOR CO VPW NHVT11LL_CKT W=410.00n L=40.00n
XX18 CINN CIN VSS VPW NHVT11LL_CKT W=410.00n L=40.00n
XX16 BNN BN VSS VPW NHVT11LL_CKT W=410.00n L=40.00n
XX15 BN B VSS VPW NHVT11LL_CKT W=0.54u L=40.00n
XX11 AN BN XNOR VPW NHVT11LL_CKT W=290.00n L=40.00n
XX12 ANN B XNOR VPW NHVT11LL_CKT W=290.00n L=40.00n
XX7 AN B XOR VPW NHVT11LL_CKT W=290.00n L=40.00n
XX5 ANN BN XOR VPW NHVT11LL_CKT W=290.00n L=40.00n
XX2 AN A VSS VPW NHVT11LL_CKT W=500.00n L=40.00n
XX0 ANN AN VSS VPW NHVT11LL_CKT W=500.00n L=40.00n
XX19 CINN XNOR CO VNW PHVT11LL_CKT W=500.00n L=40.00n
XX20 BNN XOR CO VNW PHVT11LL_CKT W=500.00n L=40.00n
XX17 CINN CIN VDD VNW PHVT11LL_CKT W=500.00n L=40.00n
XX14 BNN BN VDD VNW PHVT11LL_CKT W=500.00n L=40.00n
XX13 BN B VDD VNW PHVT11LL_CKT W=610.00n L=40.00n
XX9 AN B XNOR VNW PHVT11LL_CKT W=350.00n L=40.00n
XX10 ANN BN XNOR VNW PHVT11LL_CKT W=350.00n L=40.00n
XX6 AN BN XOR VNW PHVT11LL_CKT W=350.00n L=40.00n
XX4 ANN B XOR VNW PHVT11LL_CKT W=350.00n L=40.00n
XX1 AN A VDD VNW PHVT11LL_CKT W=610.00n L=40.00n
XX3 ANN AN VDD VNW PHVT11LL_CKT W=610.00n L=40.00n
.ENDS AC1CINV2_12TH40
.SUBCKT AC1CINV3_12TH40 A B CIN CO VDD VSS
XX21 CINN XOR CO VPW NHVT11LL_CKT W=0.57u L=40.00n
XX22 BNN XNOR CO VPW NHVT11LL_CKT W=0.57u L=40.00n
XX18 CINN CIN VSS VPW NHVT11LL_CKT W=0.57u L=40.00n
XX16 BNN BN VSS VPW NHVT11LL_CKT W=0.57u L=40.00n
XX15 BN B VSS VPW NHVT11LL_CKT W=0.92u L=40.00n
XX11 AN BN XNOR VPW NHVT11LL_CKT W=0.37u L=40.00n
XX12 ANN B XNOR VPW NHVT11LL_CKT W=0.37u L=40.00n
XX7 AN B XOR VPW NHVT11LL_CKT W=0.37u L=40.00n
XX5 ANN BN XOR VPW NHVT11LL_CKT W=0.37u L=40.00n
XX2 AN A VSS VPW NHVT11LL_CKT W=500.00n L=40.00n
XX0 ANN AN VSS VPW NHVT11LL_CKT W=500.00n L=40.00n
XX19 CINN XNOR CO VNW PHVT11LL_CKT W=0.7u L=40.00n
XX20 BNN XOR CO VNW PHVT11LL_CKT W=0.7u L=40.00n
XX17 CINN CIN VDD VNW PHVT11LL_CKT W=0.7u L=40.00n
XX14 BNN BN VDD VNW PHVT11LL_CKT W=0.7u L=40.00n
XX13 BN B VDD VNW PHVT11LL_CKT W=1.05u L=40.00n
XX9 AN B XNOR VNW PHVT11LL_CKT W=0.45u L=40.00n
XX10 ANN BN XNOR VNW PHVT11LL_CKT W=0.45u L=40.00n
XX6 AN BN XOR VNW PHVT11LL_CKT W=0.45u L=40.00n
XX4 ANN B XOR VNW PHVT11LL_CKT W=0.45u L=40.00n
XX1 AN A VDD VNW PHVT11LL_CKT W=610.00n L=40.00n
XX3 ANN AN VDD VNW PHVT11LL_CKT W=610.00n L=40.00n
.ENDS AC1CINV3_12TH40
.SUBCKT AC1CINV4_12TH40 A B CIN CO VDD VSS
XX21 CINN XOR CO VPW NHVT11LL_CKT W=0.82u L=40.00n
XX22 BNN XNOR CO VPW NHVT11LL_CKT W=0.82u L=40.00n
XX18 CINN CIN VSS VPW NHVT11LL_CKT W=0.82u L=40.00n
XX16 BNN BN VSS VPW NHVT11LL_CKT W=0.82u L=40.00n
XX15 BN B VSS VPW NHVT11LL_CKT W=1.08u L=40.00n
XX11 AN BN XNOR VPW NHVT11LL_CKT W=0.41u L=40.00n
XX12 ANN B XNOR VPW NHVT11LL_CKT W=0.41u L=40.00n
XX7 AN B XOR VPW NHVT11LL_CKT W=0.41u L=40.00n
XX5 ANN BN XOR VPW NHVT11LL_CKT W=0.41u L=40.00n
XX2 AN A VSS VPW NHVT11LL_CKT W=500.00n L=40.00n
XX0 ANN AN VSS VPW NHVT11LL_CKT W=500.00n L=40.00n
XX19 CINN XNOR CO VNW PHVT11LL_CKT W=1u L=40.00n
XX20 BNN XOR CO VNW PHVT11LL_CKT W=1u L=40.00n
XX17 CINN CIN VDD VNW PHVT11LL_CKT W=1u L=40.00n
XX14 BNN BN VDD VNW PHVT11LL_CKT W=1u L=40.00n
XX13 BN B VDD VNW PHVT11LL_CKT W=1.22u L=40.00n
XX9 AN B XNOR VNW PHVT11LL_CKT W=0.5u L=40.00n
XX10 ANN BN XNOR VNW PHVT11LL_CKT W=0.5u L=40.00n
XX6 AN BN XOR VNW PHVT11LL_CKT W=0.5u L=40.00n
XX4 ANN B XOR VNW PHVT11LL_CKT W=0.5u L=40.00n
XX1 AN A VDD VNW PHVT11LL_CKT W=610.00n L=40.00n
XX3 ANN AN VDD VNW PHVT11LL_CKT W=610.00n L=40.00n
.ENDS AC1CINV4_12TH40
.SUBCKT AC1CONV2_12TH40 A B CI CON VDD VSS
XX0 ANN AN VSS VPW NHVT11LL_CKT W=500.00n L=40.00n
XX2 AN A VSS VPW NHVT11LL_CKT W=500.00n L=40.00n
XX5 ANN BN XOR VPW NHVT11LL_CKT W=290.00n L=40.00n
XX7 AN B XOR VPW NHVT11LL_CKT W=290.00n L=40.00n
XX11 AN BN XNOR VPW NHVT11LL_CKT W=290.00n L=40.00n
XX12 ANN B XNOR VPW NHVT11LL_CKT W=290.00n L=40.00n
XX15 BN B VSS VPW NHVT11LL_CKT W=0.54u L=40.00n
XX18 CIN CI VSS VPW NHVT11LL_CKT W=410.00n L=40.00n
XX21 CIN XOR CON VPW NHVT11LL_CKT W=410.00n L=40.00n
XX22 BN XNOR CON VPW NHVT11LL_CKT W=410.00n L=40.00n
XX3 ANN AN VDD VNW PHVT11LL_CKT W=610.00n L=40.00n
XX1 AN A VDD VNW PHVT11LL_CKT W=610.00n L=40.00n
XX4 ANN B XOR VNW PHVT11LL_CKT W=350.00n L=40.00n
XX6 AN BN XOR VNW PHVT11LL_CKT W=350.00n L=40.00n
XX9 AN B XNOR VNW PHVT11LL_CKT W=350.00n L=40.00n
XX10 ANN BN XNOR VNW PHVT11LL_CKT W=350.00n L=40.00n
XX13 BN B VDD VNW PHVT11LL_CKT W=610.00n L=40.00n
XX17 CIN CI VDD VNW PHVT11LL_CKT W=500.00n L=40.00n
XX19 CIN XNOR CON VNW PHVT11LL_CKT W=500.00n L=40.00n
XX20 BN XOR CON VNW PHVT11LL_CKT W=500.00n L=40.00n
.ENDS AC1CONV2_12TH40
.SUBCKT AC1CONV3_12TH40 A B CI CON VDD VSS
XX0 ANN AN VSS VPW NHVT11LL_CKT W=500.00n L=40.00n
XX2 AN A VSS VPW NHVT11LL_CKT W=500.00n L=40.00n
XX5 ANN BN XOR VPW NHVT11LL_CKT W=0.37u L=40.00n
XX7 AN B XOR VPW NHVT11LL_CKT W=0.37u L=40.00n
XX11 AN BN XNOR VPW NHVT11LL_CKT W=0.37u L=40.00n
XX12 ANN B XNOR VPW NHVT11LL_CKT W=0.37u L=40.00n
XX15 BN B VSS VPW NHVT11LL_CKT W=1.07u L=40.00n
XX18 CIN CI VSS VPW NHVT11LL_CKT W=0.57u L=40.00n
XX21 CIN XOR CON VPW NHVT11LL_CKT W=0.57u L=40.00n
XX22 BN XNOR CON VPW NHVT11LL_CKT W=0.57u L=40.00n
XX3 ANN AN VDD VNW PHVT11LL_CKT W=610.00n L=40.00n
XX1 AN A VDD VNW PHVT11LL_CKT W=610.00n L=40.00n
XX4 ANN B XOR VNW PHVT11LL_CKT W=0.45u L=40.00n
XX6 AN BN XOR VNW PHVT11LL_CKT W=0.45u L=40.00n
XX9 AN B XNOR VNW PHVT11LL_CKT W=0.45u L=40.00n
XX10 ANN BN XNOR VNW PHVT11LL_CKT W=0.45u L=40.00n
XX13 BN B VDD VNW PHVT11LL_CKT W=1.22u L=40.00n
XX17 CIN CI VDD VNW PHVT11LL_CKT W=0.7u L=40.00n
XX19 CIN XNOR CON VNW PHVT11LL_CKT W=0.7u L=40.00n
XX20 BN XOR CON VNW PHVT11LL_CKT W=0.7u L=40.00n
.ENDS AC1CONV3_12TH40
.SUBCKT AC1CONV4_12TH40 A B CI CON VDD VSS
XX0 ANN AN VSS VPW NHVT11LL_CKT W=500.00n L=40.00n
XX2 AN A VSS VPW NHVT11LL_CKT W=500.00n L=40.00n
XX5 ANN BN XOR VPW NHVT11LL_CKT W=0.41u L=40.00n
XX7 AN B XOR VPW NHVT11LL_CKT W=0.41u L=40.00n
XX11 AN BN XNOR VPW NHVT11LL_CKT W=0.41u L=40.00n
XX12 ANN B XNOR VPW NHVT11LL_CKT W=0.41u L=40.00n
XX15 BN B VSS VPW NHVT11LL_CKT W=1.08u L=40.00n
XX18 CIN CI VSS VPW NHVT11LL_CKT W=0.82u L=40.00n
XX21 CIN XOR CON VPW NHVT11LL_CKT W=0.82u L=40.00n
XX22 BN XNOR CON VPW NHVT11LL_CKT W=0.82u L=40.00n
XX3 ANN AN VDD VNW PHVT11LL_CKT W=610.00n L=40.00n
XX1 AN A VDD VNW PHVT11LL_CKT W=610.00n L=40.00n
XX4 ANN B XOR VNW PHVT11LL_CKT W=0.5u L=40.00n
XX6 AN BN XOR VNW PHVT11LL_CKT W=0.5u L=40.00n
XX9 AN B XNOR VNW PHVT11LL_CKT W=0.5u L=40.00n
XX10 ANN BN XNOR VNW PHVT11LL_CKT W=0.5u L=40.00n
XX13 BN B VDD VNW PHVT11LL_CKT W=1.22u L=40.00n
XX17 CIN CI VDD VNW PHVT11LL_CKT W=1u L=40.00n
XX19 CIN XNOR CON VNW PHVT11LL_CKT W=1u L=40.00n
XX20 BN XOR CON VNW PHVT11LL_CKT W=1u L=40.00n
.ENDS AC1CONV4_12TH40
.SUBCKT AC2CINV2_12TH40 A B CI0N CI1N CO0 CO1 VDD VSS
XX11 CO1 net62 VSS VPW NHVT11LL_CKT W=540.00n L=40.00n
XX10 norab ci1nn net62 VPW NHVT11LL_CKT W=320.00n L=40.00n
XX9 nandab CI1N net62 VPW NHVT11LL_CKT W=320.00n L=40.00n
XX8 norab ci0nn net70 VPW NHVT11LL_CKT W=320.00n L=40.00n
XX7 nandab CI0N net70 VPW NHVT11LL_CKT W=320.00n L=40.00n
XX6 CO0 net70 VSS VPW NHVT11LL_CKT W=540.00n L=40.00n
XX5 norab B VSS VPW NHVT11LL_CKT W=320.00n L=40.00n
XX4 norab A VSS VPW NHVT11LL_CKT W=320.00n L=40.00n
XX3 ci1nn CI1N VSS VPW NHVT11LL_CKT W=210.00n L=40.00n
XX2 net91 B VSS VPW NHVT11LL_CKT W=610.00n L=40.00n
XX1 nandab A net91 VPW NHVT11LL_CKT W=610.00n L=40.00n
XX0 ci0nn CI0N VSS VPW NHVT11LL_CKT W=210.00n L=40.00n
XX23 norab CI1N net62 VNW PHVT11LL_CKT W=390.00n L=40.00n
XX22 nandab ci1nn net62 VNW PHVT11LL_CKT W=390.00n L=40.00n
XX21 norab CI0N net70 VNW PHVT11LL_CKT W=390.00n L=40.00n
XX20 nandab ci0nn net70 VNW PHVT11LL_CKT W=390.00n L=40.00n
XX19 CO0 net70 VDD VNW PHVT11LL_CKT W=610.00n L=40.00n
XX18 CO1 net62 VDD VNW PHVT11LL_CKT W=610.00n L=40.00n
XX17 norab A net34 VNW PHVT11LL_CKT W=610.00n L=40.00n
XX16 net34 B VDD VNW PHVT11LL_CKT W=610.00n L=40.00n
XX15 nandab B VDD VNW PHVT11LL_CKT W=390.00n L=40.00n
XX14 nandab A VDD VNW PHVT11LL_CKT W=390.00n L=40.00n
XX13 ci1nn CI1N VDD VNW PHVT11LL_CKT W=260.00n L=40.00n
XX12 ci0nn CI0N VDD VNW PHVT11LL_CKT W=260.00n L=40.00n
.ENDS AC2CINV2_12TH40
.SUBCKT AC2CINV3_12TH40 A B CI0N CI1N CO0 CO1 VDD VSS
XX11 CO1 net62 VSS VPW NHVT11LL_CKT W=760.00n L=40.00n
XX10 norab ci1nn net62 VPW NHVT11LL_CKT W=350.00n L=40.00n
XX9 nandab CI1N net62 VPW NHVT11LL_CKT W=350.00n L=40.00n
XX8 norab ci0nn net70 VPW NHVT11LL_CKT W=350.00n L=40.00n
XX7 nandab CI0N net70 VPW NHVT11LL_CKT W=350.00n L=40.00n
XX6 CO0 net70 VSS VPW NHVT11LL_CKT W=760.00n L=40.00n
XX5 norab B VSS VPW NHVT11LL_CKT W=450.00n L=40.00n
XX4 norab A VSS VPW NHVT11LL_CKT W=450.00n L=40.00n
XX3 ci1nn CI1N VSS VPW NHVT11LL_CKT W=230.00n L=40.00n
XX2 net91 B VSS VPW NHVT11LL_CKT W=860.00n L=40.00n
XX1 nandab A net91 VPW NHVT11LL_CKT W=860.00n L=40.00n
XX0 ci0nn CI0N VSS VPW NHVT11LL_CKT W=230.00n L=40.00n
XX23 norab CI1N net62 VNW PHVT11LL_CKT W=420.00n L=40.00n
XX22 nandab ci1nn net62 VNW PHVT11LL_CKT W=420.00n L=40.00n
XX21 norab CI0N net70 VNW PHVT11LL_CKT W=420.00n L=40.00n
XX20 nandab ci0nn net70 VNW PHVT11LL_CKT W=420.00n L=40.00n
XX19 CO0 net70 VDD VNW PHVT11LL_CKT W=860.00n L=40.00n
XX18 CO1 net62 VDD VNW PHVT11LL_CKT W=860.00n L=40.00n
XX17 norab A net34 VNW PHVT11LL_CKT W=860.00n L=40.00n
XX16 net34 B VDD VNW PHVT11LL_CKT W=860.00n L=40.00n
XX15 nandab B VDD VNW PHVT11LL_CKT W=550.00n L=40.00n
XX14 nandab A VDD VNW PHVT11LL_CKT W=550.00n L=40.00n
XX13 ci1nn CI1N VDD VNW PHVT11LL_CKT W=280.00n L=40.00n
XX12 ci0nn CI0N VDD VNW PHVT11LL_CKT W=280.00n L=40.00n
.ENDS AC2CINV3_12TH40
.SUBCKT AC2CINV4_12TH40 A B CI0N CI1N CO0 CO1 VDD VSS
XX11 CO1 net62 VSS VPW NHVT11LL_CKT W=1.08u L=40.00n
XX10 norab ci1nn net62 VPW NHVT11LL_CKT W=400.00n L=40.00n
XX9 nandab CI1N net62 VPW NHVT11LL_CKT W=400.00n L=40.00n
XX8 norab ci0nn net70 VPW NHVT11LL_CKT W=400.00n L=40.00n
XX7 nandab CI0N net70 VPW NHVT11LL_CKT W=400.00n L=40.00n
XX6 CO0 net70 VSS VPW NHVT11LL_CKT W=1.08u L=40.00n
XX5 norab B VSS VPW NHVT11LL_CKT W=640.00n L=40.00n
XX4 norab A VSS VPW NHVT11LL_CKT W=640.00n L=40.00n
XX3 ci1nn CI1N VSS VPW NHVT11LL_CKT W=270.00n L=40.00n
XX2 net91 B VSS VPW NHVT11LL_CKT W=1.22u L=40.00n
XX1 nandab A net91 VPW NHVT11LL_CKT W=1.22u L=40.00n
XX0 ci0nn CI0N VSS VPW NHVT11LL_CKT W=270.00n L=40.00n
XX23 norab CI1N net62 VNW PHVT11LL_CKT W=500.00n L=40.00n
XX22 nandab ci1nn net62 VNW PHVT11LL_CKT W=500.00n L=40.00n
XX21 norab CI0N net70 VNW PHVT11LL_CKT W=500.00n L=40.00n
XX20 nandab ci0nn net70 VNW PHVT11LL_CKT W=500.00n L=40.00n
XX19 CO0 net70 VDD VNW PHVT11LL_CKT W=1.22u L=40.00n
XX18 CO1 net62 VDD VNW PHVT11LL_CKT W=1.22u L=40.00n
XX17 norab A net34 VNW PHVT11LL_CKT W=1.22u L=40.00n
XX16 net34 B VDD VNW PHVT11LL_CKT W=1.22u L=40.00n
XX15 nandab B VDD VNW PHVT11LL_CKT W=780.00n L=40.00n
XX14 nandab A VDD VNW PHVT11LL_CKT W=780.00n L=40.00n
XX13 ci1nn CI1N VDD VNW PHVT11LL_CKT W=330.00n L=40.00n
XX12 ci0nn CI0N VDD VNW PHVT11LL_CKT W=330.00n L=40.00n
.ENDS AC2CINV4_12TH40
.SUBCKT AC2CONV2_12TH40 A B CI0 CI1 CO0N CO1N VDD VSS
XX27 orab CI1 net10 VPW NHVT11LL_CKT W=320.00n L=40.00n
XX26 andab ci1n net10 VPW NHVT11LL_CKT W=320.00n L=40.00n
XX25 orab CI0 net18 VPW NHVT11LL_CKT W=320.00n L=40.00n
XX24 andab ci0n net18 VPW NHVT11LL_CKT W=320.00n L=40.00n
XX23 CO1N net10 VSS VPW NHVT11LL_CKT W=540.00n L=40.00n
XX22 CO0N net18 VSS VPW NHVT11LL_CKT W=540.00n L=40.00n
XX21 orab norab VSS VPW NHVT11LL_CKT W=540.00n L=40.00n
XX20 andab nandab VSS VPW NHVT11LL_CKT W=540.00n L=40.00n
XX19 norab B VSS VPW NHVT11LL_CKT W=205.00n L=40.00n
XX18 norab A VSS VPW NHVT11LL_CKT W=205.00n L=40.00n
XX17 net47 B VSS VPW NHVT11LL_CKT W=320.00n L=40.00n
XX16 nandab A net47 VPW NHVT11LL_CKT W=320.00n L=40.00n
XX15 ci1n CI1 VSS VPW NHVT11LL_CKT W=210.00n L=40.00n
XX14 ci0n CI0 VSS VPW NHVT11LL_CKT W=210.00n L=40.00n
XX13 orab ci1n net10 VNW PHVT11LL_CKT W=390.00n L=40.00n
XX12 andab CI1 net10 VNW PHVT11LL_CKT W=390.00n L=40.00n
XX11 orab ci0n net18 VNW PHVT11LL_CKT W=390.00n L=40.00n
XX10 andab CI0 net18 VNW PHVT11LL_CKT W=390.00n L=40.00n
XX9 CO1N net10 VDD VNW PHVT11LL_CKT W=610.00n L=40.00n
XX8 CO0N net18 VDD VNW PHVT11LL_CKT W=610.00n L=40.00n
XX7 orab norab VDD VNW PHVT11LL_CKT W=610.00n L=40.00n
XX6 andab nandab VDD VNW PHVT11LL_CKT W=610.00n L=40.00n
XX5 norab A net98 VNW PHVT11LL_CKT W=435.00n L=40.00n
XX4 net98 B VDD VNW PHVT11LL_CKT W=435.00n L=40.00n
XX3 nandab B VDD VNW PHVT11LL_CKT W=285.00n L=40.00n
XX2 nandab A VDD VNW PHVT11LL_CKT W=285.00n L=40.00n
XX1 ci1n CI1 VDD VNW PHVT11LL_CKT W=260.00n L=40.00n
XX0 ci0n CI0 VDD VNW PHVT11LL_CKT W=260.00n L=40.00n
.ENDS AC2CONV2_12TH40
.SUBCKT AC2CONV3_12TH40 A B CI0 CI1 CO0N CO1N VDD VSS
XX27 orab CI1 net10 VPW NHVT11LL_CKT W=350.00n L=40.00n
XX26 andab ci1n net10 VPW NHVT11LL_CKT W=350.00n L=40.00n
XX25 orab CI0 net18 VPW NHVT11LL_CKT W=350.00n L=40.00n
XX24 andab ci0n net18 VPW NHVT11LL_CKT W=350.00n L=40.00n
XX23 CO1N net10 VSS VPW NHVT11LL_CKT W=760.00n L=40.00n
XX22 CO0N net18 VSS VPW NHVT11LL_CKT W=760.00n L=40.00n
XX21 orab norab VSS VPW NHVT11LL_CKT W=760.00n L=40.00n
XX20 andab nandab VSS VPW NHVT11LL_CKT W=760.00n L=40.00n
XX19 norab B VSS VPW NHVT11LL_CKT W=275.00n L=40.00n
XX18 norab A VSS VPW NHVT11LL_CKT W=275.00n L=40.00n
XX17 net47 B VSS VPW NHVT11LL_CKT W=450.00n L=40.00n
XX16 nandab A net47 VPW NHVT11LL_CKT W=450.00n L=40.00n
XX15 ci1n CI1 VSS VPW NHVT11LL_CKT W=230.00n L=40.00n
XX14 ci0n CI0 VSS VPW NHVT11LL_CKT W=230.00n L=40.00n
XX13 orab ci1n net10 VNW PHVT11LL_CKT W=420.00n L=40.00n
XX12 andab CI1 net10 VNW PHVT11LL_CKT W=420.00n L=40.00n
XX11 orab ci0n net18 VNW PHVT11LL_CKT W=420.00n L=40.00n
XX10 andab CI0 net18 VNW PHVT11LL_CKT W=420.00n L=40.00n
XX9 CO1N net10 VDD VNW PHVT11LL_CKT W=860.00n L=40.00n
XX8 CO0N net18 VDD VNW PHVT11LL_CKT W=860.00n L=40.00n
XX7 orab norab VDD VNW PHVT11LL_CKT W=860.00n L=40.00n
XX6 andab nandab VDD VNW PHVT11LL_CKT W=860.00n L=40.00n
XX5 norab A net98 VNW PHVT11LL_CKT W=580.00n L=40.00n
XX4 net98 B VDD VNW PHVT11LL_CKT W=580.00n L=40.00n
XX3 nandab B VDD VNW PHVT11LL_CKT W=400.00n L=40.00n
XX2 nandab A VDD VNW PHVT11LL_CKT W=400.00n L=40.00n
XX1 ci1n CI1 VDD VNW PHVT11LL_CKT W=280.00n L=40.00n
XX0 ci0n CI0 VDD VNW PHVT11LL_CKT W=280.00n L=40.00n
.ENDS AC2CONV3_12TH40
.SUBCKT AC2CONV4_12TH40 A B CI0 CI1 CO0N CO1N VDD VSS
XX27 orab CI1 net10 VPW NHVT11LL_CKT W=400.00n L=40.00n
XX26 andab ci1n net10 VPW NHVT11LL_CKT W=400.00n L=40.00n
XX25 orab CI0 net18 VPW NHVT11LL_CKT W=400.00n L=40.00n
XX24 andab ci0n net18 VPW NHVT11LL_CKT W=400.00n L=40.00n
XX23 CO1N net10 VSS VPW NHVT11LL_CKT W=1.08u L=40.00n
XX22 CO0N net18 VSS VPW NHVT11LL_CKT W=1.08u L=40.00n
XX21 orab norab VSS VPW NHVT11LL_CKT W=1.08u L=40.00n
XX20 andab nandab VSS VPW NHVT11LL_CKT W=1.08u L=40.00n
XX19 norab B VSS VPW NHVT11LL_CKT W=400.0n L=40.00n
XX18 norab A VSS VPW NHVT11LL_CKT W=400.00n L=40.00n
XX17 net47 B VSS VPW NHVT11LL_CKT W=610.00n L=40.00n
XX16 nandab A net47 VPW NHVT11LL_CKT W=610.00n L=40.00n
XX15 ci1n CI1 VSS VPW NHVT11LL_CKT W=270.00n L=40.00n
XX14 ci0n CI0 VSS VPW NHVT11LL_CKT W=270.00n L=40.00n
XX13 orab ci1n net10 VNW PHVT11LL_CKT W=500.00n L=40.00n
XX12 andab CI1 net10 VNW PHVT11LL_CKT W=500.00n L=40.00n
XX11 orab ci0n net18 VNW PHVT11LL_CKT W=500.00n L=40.00n
XX10 andab CI0 net18 VNW PHVT11LL_CKT W=500.00n L=40.00n
XX9 CO1N net10 VDD VNW PHVT11LL_CKT W=1.22u L=40.00n
XX8 CO0N net18 VDD VNW PHVT11LL_CKT W=1.22u L=40.00n
XX7 orab norab VDD VNW PHVT11LL_CKT W=1.22u L=40.00n
XX6 andab nandab VDD VNW PHVT11LL_CKT W=1.22u L=40.00n
XX5 norab A net98 VNW PHVT11LL_CKT W=840.00n L=40.00n
XX4 net98 B VDD VNW PHVT11LL_CKT W=840.00n L=40.00n
XX3 nandab B VDD VNW PHVT11LL_CKT W=550.00n L=40.00n
XX2 nandab A VDD VNW PHVT11LL_CKT W=550.00n L=40.00n
XX1 ci1n CI1 VDD VNW PHVT11LL_CKT W=330.00n L=40.00n
XX0 ci0n CI0 VDD VNW PHVT11LL_CKT W=330.00n L=40.00n
.ENDS AC2CONV4_12TH40
.SUBCKT ACH2CONV2_12TH40 A B CO0N CO1N VDD VSS
XX3 net21 B VSS VPW NHVT11LL_CKT W=610.00n L=40.00n
XX2 CO0N A net21 VPW NHVT11LL_CKT W=610.00n L=40.00n
XX1 CO1N B VSS VPW NHVT11LL_CKT W=290.00n L=40.00n
XX0 CO1N A VSS VPW NHVT11LL_CKT W=290.00n L=40.00n
XX7 CO1N A net8 VNW PHVT11LL_CKT W=610.00n L=40.00n
XX6 net8 B VDD VNW PHVT11LL_CKT W=610.00n L=40.00n
XX5 CO0N B VDD VNW PHVT11LL_CKT W=400.00n L=40.00n
XX4 CO0N A VDD VNW PHVT11LL_CKT W=400.00n L=40.00n
.ENDS ACH2CONV2_12TH40
.SUBCKT ACH2CONV3_12TH40 A B CO0N CO1N VDD VSS
XX3 net21 B VSS VPW NHVT11LL_CKT W=860.00n L=40.00n
XX2 CO0N A net21 VPW NHVT11LL_CKT W=860.00n L=40.00n
XX1 CO1N B VSS VPW NHVT11LL_CKT W=410.00n L=40.00n
XX0 CO1N A VSS VPW NHVT11LL_CKT W=410.00n L=40.00n
XX7 CO1N A net8 VNW PHVT11LL_CKT W=860.00n L=40.00n
XX6 net8 B VDD VNW PHVT11LL_CKT W=860.00n L=40.00n
XX5 CO0N B VDD VNW PHVT11LL_CKT W=560.00n L=40.00n
XX4 CO0N A VDD VNW PHVT11LL_CKT W=560.00n L=40.00n
.ENDS ACH2CONV3_12TH40
.SUBCKT ACH2CONV4_12TH40 A B CO0N CO1N VDD VSS
XX3 net21 B VSS VPW NHVT11LL_CKT W=1.22u L=40.00n
XX2 CO0N A net21 VPW NHVT11LL_CKT W=1.22u L=40.00n
XX1 CO1N B VSS VPW NHVT11LL_CKT W=580.00n L=40.00n
XX0 CO1N A VSS VPW NHVT11LL_CKT W=580.00n L=40.00n
XX7 CO1N A net8 VNW PHVT11LL_CKT W=1.22u L=40.00n
XX6 net8 B VDD VNW PHVT11LL_CKT W=1.22u L=40.00n
XX5 CO0N B VDD VNW PHVT11LL_CKT W=800.00n L=40.00n
XX4 CO0N A VDD VNW PHVT11LL_CKT W=800.00n L=40.00n
.ENDS ACH2CONV4_12TH40
.SUBCKT AD142V2_12TH40 A B C CI CO D ICO S VDD VSS
XX16 BN B VSS VPW NHVT11LL_CKT W=380.00n L=40.00n
XX78 DN D VSS VPW NHVT11LL_CKT W=310.00n L=40.00n
XX79 DNN DN VSS VPW NHVT11LL_CKT W=250.00n L=40.00n
XX58 BNN BN VSS VPW NHVT11LL_CKT W=300.00n L=40.00n
XX80 DN CN CD VPW NHVT11LL_CKT W=250.00n L=40.00n
XX81 DNN C CD VPW NHVT11LL_CKT W=250.00n L=40.00n
XX86 CDN CD VSS VPW NHVT11LL_CKT W=380.00n L=40.00n
XX88 net0116 CDN VSS VPW NHVT11LL_CKT W=300.00n L=40.00n
XX90 net0116 AB ABCD VPW NHVT11LL_CKT W=300.00n L=40.00n
XX91 CDN ABN ABCD VPW NHVT11LL_CKT W=300.00n L=40.00n
XX94 net0104 CI VSS VPW NHVT11LL_CKT W=330.00n L=40.00n
XX95 A2DICI ABCDN net0104 VPW NHVT11LL_CKT W=330.00n L=40.00n
XX98 ICIN CI VSS VPW NHVT11LL_CKT W=240.00n L=40.00n
XX100 ABCDN ABCD VSS VPW NHVT11LL_CKT W=440.00n L=40.00n
XX101 ABCDNN ABCDN VSS VPW NHVT11LL_CKT W=300.00n L=40.00n
XX102 ABCDN CI net083 VPW NHVT11LL_CKT W=300.00n L=40.00n
XX103 ABCDNN ICIN net083 VPW NHVT11LL_CKT W=300.00n L=40.00n
XX108 S net083 VSS VPW NHVT11LL_CKT W=540.00n L=40.00n
XX74 CO A2DICI net076 VPW NHVT11LL_CKT W=610.00n L=40.00n
XX75 net076 net0152 VSS VPW NHVT11LL_CKT W=610.00n L=40.00n
XX66 ABN AB VSS VPW NHVT11LL_CKT W=240.00n L=40.00n
XX68 CN C VSS VPW NHVT11LL_CKT W=210.00n L=40.00n
XX64 AN A VSS VPW NHVT11LL_CKT W=240.00n L=40.00n
XX61 BN AN AB VPW NHVT11LL_CKT W=300.00n L=40.00n
XX72 net088 D VSS VPW NHVT11LL_CKT W=330.00n L=40.00n
XX73 net0152 ABCD net088 VPW NHVT11LL_CKT W=330.00n L=40.00n
XX62 BNN A AB VPW NHVT11LL_CKT W=300.00n L=40.00n
XX9 net5 C VSS VPW NHVT11LL_CKT W=300.00n L=40.00n
XX8 ICON B net5 VPW NHVT11LL_CKT W=300.00n L=40.00n
XX5 net17 B VSS VPW NHVT11LL_CKT W=300.00n L=40.00n
XX2 net17 C VSS VPW NHVT11LL_CKT W=300.00n L=40.00n
XX4 ICON A net17 VPW NHVT11LL_CKT W=300.00n L=40.00n
XX11 ICO ICON VSS VPW NHVT11LL_CKT W=540.00n L=40.00n
XX26 BN B VDD VNW PHVT11LL_CKT W=460.00n L=40.00n
XX59 BNN BN VDD VNW PHVT11LL_CKT W=370.00n L=40.00n
XX82 DN D VDD VNW PHVT11LL_CKT W=380.00n L=40.00n
XX83 DNN DN VDD VNW PHVT11LL_CKT W=300.00n L=40.00n
XX84 DN C CD VNW PHVT11LL_CKT W=300.00n L=40.00n
XX85 DNN CN CD VNW PHVT11LL_CKT W=300.00n L=40.00n
XX87 CDN CD VDD VNW PHVT11LL_CKT W=460.00n L=40.00n
XX89 net0116 CDN VDD VNW PHVT11LL_CKT W=370.00n L=40.00n
XX92 net0116 ABN ABCD VNW PHVT11LL_CKT W=370.00n L=40.00n
XX93 CDN AB ABCD VNW PHVT11LL_CKT W=370.00n L=40.00n
XX96 A2DICI CI VDD VNW PHVT11LL_CKT W=210.00n L=40.00n
XX97 A2DICI ABCDN VDD VNW PHVT11LL_CKT W=210.00n L=40.00n
XX99 ICIN CI VDD VNW PHVT11LL_CKT W=270.00n L=40.00n
XX104 ABCDN ABCD VDD VNW PHVT11LL_CKT W=530.00n L=40.00n
XX105 ABCDNN ABCDN VDD VNW PHVT11LL_CKT W=370.00n L=40.00n
XX106 ABCDN ICIN net083 VNW PHVT11LL_CKT W=370.00n L=40.00n
XX107 ABCDNN CI net083 VNW PHVT11LL_CKT W=370.00n L=40.00n
XX109 S net083 VDD VNW PHVT11LL_CKT W=610.00n L=40.00n
XX77 CO A2DICI VDD VNW PHVT11LL_CKT W=395.00n L=40.00n
XX60 BN A AB VNW PHVT11LL_CKT W=370.00n L=40.00n
XX67 ABN AB VDD VNW PHVT11LL_CKT W=270.00n L=40.00n
XX69 CN C VDD VNW PHVT11LL_CKT W=240.00n L=40.00n
XX70 net0152 D VDD VNW PHVT11LL_CKT W=210.00n L=40.00n
XX71 net0152 ABCD VDD VNW PHVT11LL_CKT W=210.00n L=40.00n
XX63 BNN AN AB VNW PHVT11LL_CKT W=370.00n L=40.00n
XX65 AN A VDD VNW PHVT11LL_CKT W=270.00n L=40.00n
XX76 CO net0152 VDD VNW PHVT11LL_CKT W=395.00n L=40.00n
XX7 ICON B net32 VNW PHVT11LL_CKT W=360.00n L=40.00n
XX6 net32 C VDD VNW PHVT11LL_CKT W=360.00n L=40.00n
XX3 ICON A net45 VNW PHVT11LL_CKT W=360.00n L=40.00n
XX0 net45 B VDD VNW PHVT11LL_CKT W=360.00n L=40.00n
XX1 net45 C VDD VNW PHVT11LL_CKT W=360.00n L=40.00n
XX10 ICO ICON VDD VNW PHVT11LL_CKT W=610.00n L=40.00n
.ENDS AD142V2_12TH40
.SUBCKT AD142V3_12TH40 A B C CI CO D ICO S VDD VSS
XX16 BN B VSS VPW NHVT11LL_CKT W=0.5u L=40.00n
XX78 DN D VSS VPW NHVT11LL_CKT W=0.37u L=40.00n
XX79 DNN DN VSS VPW NHVT11LL_CKT W=0.3u L=40.00n
XX58 BNN BN VSS VPW NHVT11LL_CKT W=0.4u L=40.00n
XX80 DN CN CD VPW NHVT11LL_CKT W=0.3u L=40.00n
XX81 DNN C CD VPW NHVT11LL_CKT W=0.3u L=40.00n
XX86 CDN CD VSS VPW NHVT11LL_CKT W=0.5u L=40.00n
XX88 net0116 CDN VSS VPW NHVT11LL_CKT W=0.4u L=40.00n
XX90 net0116 AB ABCD VPW NHVT11LL_CKT W=0.4u L=40.00n
XX91 CDN ABN ABCD VPW NHVT11LL_CKT W=0.4u L=40.00n
XX94 net0104 CI VSS VPW NHVT11LL_CKT W=0.5u L=40.00n
XX95 A2DICI ABCDN net0104 VPW NHVT11LL_CKT W=0.5u L=40.00n
XX98 ICIN CI VSS VPW NHVT11LL_CKT W=0.29u L=40.00n
XX100 ABCDN ABCD VSS VPW NHVT11LL_CKT W=0.5u L=40.00n
XX101 ABCDNN ABCDN VSS VPW NHVT11LL_CKT W=0.4u L=40.00n
XX102 ABCDN CI net083 VPW NHVT11LL_CKT W=0.4u L=40.00n
XX103 ABCDNN ICIN net083 VPW NHVT11LL_CKT W=0.4u L=40.00n
XX108 S net083 VSS VPW NHVT11LL_CKT W=0.76u L=40.00n
XX74 CO A2DICI net076 VPW NHVT11LL_CKT W=0.86u L=40.00n
XX75 net076 net0152 VSS VPW NHVT11LL_CKT W=0.86u L=40.00n
XX66 ABN AB VSS VPW NHVT11LL_CKT W=0.29u L=40.00n
XX68 CN C VSS VPW NHVT11LL_CKT W=0.23u L=40.00n
XX64 AN A VSS VPW NHVT11LL_CKT W=0.28u L=40.00n
XX61 BN AN AB VPW NHVT11LL_CKT W=0.4u L=40.00n
XX72 net088 D VSS VPW NHVT11LL_CKT W=0.5u L=40.00n
XX73 net0152 ABCD net088 VPW NHVT11LL_CKT W=0.5u L=40.00n
XX62 BNN A AB VPW NHVT11LL_CKT W=0.4u L=40.00n
XX9 net5 C VSS VPW NHVT11LL_CKT W=0.375u L=40.00n
XX8 ICON B net5 VPW NHVT11LL_CKT W=0.375u L=40.00n
XX5 net17 B VSS VPW NHVT11LL_CKT W=0.375u L=40.00n
XX2 net17 C VSS VPW NHVT11LL_CKT W=0.375u L=40.00n
XX4 ICON A net17 VPW NHVT11LL_CKT W=0.375u L=40.00n
XX11 ICO ICON VSS VPW NHVT11LL_CKT W=0.76u L=40.00n
XX26 BN B VDD VNW PHVT11LL_CKT W=0.61u L=40.00n
XX59 BNN BN VDD VNW PHVT11LL_CKT W=0.48u L=40.00n
XX82 DN D VDD VNW PHVT11LL_CKT W=0.45u L=40.00n
XX83 DNN DN VDD VNW PHVT11LL_CKT W=0.36u L=40.00n
XX84 DN C CD VNW PHVT11LL_CKT W=0.36u L=40.00n
XX85 DNN CN CD VNW PHVT11LL_CKT W=0.36u L=40.00n
XX87 CDN CD VDD VNW PHVT11LL_CKT W=0.61u L=40.00n
XX89 net0116 CDN VDD VNW PHVT11LL_CKT W=0.48u L=40.00n
XX92 net0116 ABN ABCD VNW PHVT11LL_CKT W=0.48u L=40.00n
XX93 CDN AB ABCD VNW PHVT11LL_CKT W=0.48u L=40.00n
XX96 A2DICI CI VDD VNW PHVT11LL_CKT W=0.32u L=40.00n
XX97 A2DICI ABCDN VDD VNW PHVT11LL_CKT W=0.32u L=40.00n
XX99 ICIN CI VDD VNW PHVT11LL_CKT W=0.33u L=40.00n
XX104 ABCDN ABCD VDD VNW PHVT11LL_CKT W=0.61u L=40.00n
XX105 ABCDNN ABCDN VDD VNW PHVT11LL_CKT W=0.48u L=40.00n
XX106 ABCDN ICIN net083 VNW PHVT11LL_CKT W=0.48u L=40.00n
XX107 ABCDNN CI net083 VNW PHVT11LL_CKT W=0.48u L=40.00n
XX109 S net083 VDD VNW PHVT11LL_CKT W=0.86u L=40.00n
XX77 CO A2DICI VDD VNW PHVT11LL_CKT W=0.56u L=40.00n
XX60 BN A AB VNW PHVT11LL_CKT W=0.48u L=40.00n
XX67 ABN AB VDD VNW PHVT11LL_CKT W=0.33u L=40.00n
XX69 CN C VDD VNW PHVT11LL_CKT W=0.27u L=40.00n
XX70 net0152 D VDD VNW PHVT11LL_CKT W=0.32u L=40.00n
XX71 net0152 ABCD VDD VNW PHVT11LL_CKT W=0.32u L=40.00n
XX63 BNN AN AB VNW PHVT11LL_CKT W=0.48u L=40.00n
XX65 AN A VDD VNW PHVT11LL_CKT W=0.325u L=40.00n
XX76 CO net0152 VDD VNW PHVT11LL_CKT W=0.56u L=40.00n
XX7 ICON B net32 VNW PHVT11LL_CKT W=0.46u L=40.00n
XX6 net32 C VDD VNW PHVT11LL_CKT W=0.46u L=40.00n
XX3 ICON A net45 VNW PHVT11LL_CKT W=0.46u L=40.00n
XX0 net45 B VDD VNW PHVT11LL_CKT W=0.46u L=40.00n
XX1 net45 C VDD VNW PHVT11LL_CKT W=0.46u L=40.00n
XX10 ICO ICON VDD VNW PHVT11LL_CKT W=0.86u L=40.00n
.ENDS AD142V3_12TH40
.SUBCKT AD142V4_12TH40 A B C CI CO D ICO S VDD VSS
XX16 BN B VSS VPW NHVT11LL_CKT W=0.5u L=40.00n
XX78 DN D VSS VPW NHVT11LL_CKT W=0.37u L=40.00n
XX79 DNN DN VSS VPW NHVT11LL_CKT W=0.3u L=40.00n
XX58 BNN BN VSS VPW NHVT11LL_CKT W=0.4u L=40.00n
XX80 DN CN CD VPW NHVT11LL_CKT W=0.3u L=40.00n
XX81 DNN C CD VPW NHVT11LL_CKT W=0.3u L=40.00n
XX86 CDN CD VSS VPW NHVT11LL_CKT W=0.5u L=40.00n
XX88 net0116 CDN VSS VPW NHVT11LL_CKT W=0.41u L=40.00n
XX90 net0116 AB ABCD VPW NHVT11LL_CKT W=0.41u L=40.00n
XX91 CDN ABN ABCD VPW NHVT11LL_CKT W=0.41u L=40.00n
XX94 net0104 CI VSS VPW NHVT11LL_CKT W=0.61u L=40.00n
XX95 A2DICI ABCDN net0104 VPW NHVT11LL_CKT W=0.61u L=40.00n
XX98 ICIN CI VSS VPW NHVT11LL_CKT W=0.29u L=40.00n
XX100 ABCDN ABCD VSS VPW NHVT11LL_CKT W=0.5u L=40.00n
XX101 ABCDNN ABCDN VSS VPW NHVT11LL_CKT W=0.41u L=40.00n
XX102 ABCDN CI net083 VPW NHVT11LL_CKT W=0.41u L=40.00n
XX103 ABCDNN ICIN net083 VPW NHVT11LL_CKT W=0.41u L=40.00n
XX108 S net083 VSS VPW NHVT11LL_CKT W=1.08u L=40.00n
XX74 CO A2DICI net076 VPW NHVT11LL_CKT W=1.22u L=40.00n
XX75 net076 net0152 VSS VPW NHVT11LL_CKT W=1.22u L=40.00n
XX66 ABN AB VSS VPW NHVT11LL_CKT W=0.29u L=40.00n
XX68 CN C VSS VPW NHVT11LL_CKT W=0.23u L=40.00n
XX64 AN A VSS VPW NHVT11LL_CKT W=0.28u L=40.00n
XX61 BN AN AB VPW NHVT11LL_CKT W=0.4u L=40.00n
XX72 net088 D VSS VPW NHVT11LL_CKT W=0.61u L=40.00n
XX73 net0152 ABCD net088 VPW NHVT11LL_CKT W=0.61u L=40.00n
XX62 BNN A AB VPW NHVT11LL_CKT W=0.4u L=40.00n
XX9 net5 C VSS VPW NHVT11LL_CKT W=0.505u L=40.00n
XX8 ICON B net5 VPW NHVT11LL_CKT W=0.505u L=40.00n
XX5 net17 B VSS VPW NHVT11LL_CKT W=0.505u L=40.00n
XX2 net17 C VSS VPW NHVT11LL_CKT W=0.505u L=40.00n
XX4 ICON A net17 VPW NHVT11LL_CKT W=0.505u L=40.00n
XX11 ICO ICON VSS VPW NHVT11LL_CKT W=1.08u L=40.00n
XX26 BN B VDD VNW PHVT11LL_CKT W=0.61u L=40.00n
XX59 BNN BN VDD VNW PHVT11LL_CKT W=0.48u L=40.00n
XX82 DN D VDD VNW PHVT11LL_CKT W=0.45u L=40.00n
XX83 DNN DN VDD VNW PHVT11LL_CKT W=0.36u L=40.00n
XX84 DN C CD VNW PHVT11LL_CKT W=0.36u L=40.00n
XX85 DNN CN CD VNW PHVT11LL_CKT W=0.36u L=40.00n
XX87 CDN CD VDD VNW PHVT11LL_CKT W=0.61u L=40.00n
XX89 net0116 CDN VDD VNW PHVT11LL_CKT W=0.5u L=40.00n
XX92 net0116 ABN ABCD VNW PHVT11LL_CKT W=0.5u L=40.00n
XX93 CDN AB ABCD VNW PHVT11LL_CKT W=0.5u L=40.00n
XX96 A2DICI CI VDD VNW PHVT11LL_CKT W=0.395u L=40.00n
XX97 A2DICI ABCDN VDD VNW PHVT11LL_CKT W=0.395u L=40.00n
XX99 ICIN CI VDD VNW PHVT11LL_CKT W=0.33u L=40.00n
XX104 ABCDN ABCD VDD VNW PHVT11LL_CKT W=0.61u L=40.00n
XX105 ABCDNN ABCDN VDD VNW PHVT11LL_CKT W=0.5u L=40.00n
XX106 ABCDN ICIN net083 VNW PHVT11LL_CKT W=0.5u L=40.00n
XX107 ABCDNN CI net083 VNW PHVT11LL_CKT W=0.5u L=40.00n
XX109 S net083 VDD VNW PHVT11LL_CKT W=1.22u L=40.00n
XX77 CO A2DICI VDD VNW PHVT11LL_CKT W=0.79u L=40.00n
XX60 BN A AB VNW PHVT11LL_CKT W=0.48u L=40.00n
XX67 ABN AB VDD VNW PHVT11LL_CKT W=0.33u L=40.00n
XX69 CN C VDD VNW PHVT11LL_CKT W=0.27u L=40.00n
XX70 net0152 D VDD VNW PHVT11LL_CKT W=0.395u L=40.00n
XX71 net0152 ABCD VDD VNW PHVT11LL_CKT W=0.395u L=40.00n
XX63 BNN AN AB VNW PHVT11LL_CKT W=0.48u L=40.00n
XX65 AN A VDD VNW PHVT11LL_CKT W=0.325u L=40.00n
XX76 CO net0152 VDD VNW PHVT11LL_CKT W=0.79u L=40.00n
XX7 ICON B net32 VNW PHVT11LL_CKT W=0.61u L=40.00n
XX6 net32 C VDD VNW PHVT11LL_CKT W=0.61u L=40.00n
XX3 ICON A net45 VNW PHVT11LL_CKT W=0.61u L=40.00n
XX0 net45 B VDD VNW PHVT11LL_CKT W=0.61u L=40.00n
XX1 net45 C VDD VNW PHVT11LL_CKT W=0.61u L=40.00n
XX10 ICO ICON VDD VNW PHVT11LL_CKT W=1.22u L=40.00n
.ENDS AD142V4_12TH40
.SUBCKT AD1CINV2_12TH40 A B CIN CO S VDD VSS
XX27 CO net319 VSS VPW NHVT11LL_CKT W=0.54u L=40.00n
XX24 S net323 VSS VPW NHVT11LL_CKT W=0.54u L=40.00n
XX22 CINNN CINN VSS VPW NHVT11LL_CKT W=270.00n L=40.00n
XX19 CINN XOR net323 VPW NHVT11LL_CKT W=270.00n L=40.00n
XX18 CINNN XNOR net323 VPW NHVT11LL_CKT W=270.00n L=40.00n
XX15 CINNN XOR net319 VPW NHVT11LL_CKT W=270.00n L=40.00n
XX14 BN XNOR net319 VPW NHVT11LL_CKT W=270.00n L=40.00n
XX12 CINN CIN VSS VPW NHVT11LL_CKT W=390.00n L=40.00n
XX9 AN BN XNOR VPW NHVT11LL_CKT W=340.00n L=40.00n
XX8 ANN B XNOR VPW NHVT11LL_CKT W=340.00n L=40.00n
XX5 ANN BN XOR VPW NHVT11LL_CKT W=340.00n L=40.00n
XX7 AN B XOR VPW NHVT11LL_CKT W=340.00n L=40.00n
XX2 ANN AN VSS VPW NHVT11LL_CKT W=510.00n L=40.00n
XX0 BN B VSS VPW NHVT11LL_CKT W=500.00n L=40.00n
XX29 AN A VSS VPW NHVT11LL_CKT W=510.00n L=40.00n
XX26 CO net319 VDD VNW PHVT11LL_CKT W=610.00n L=40.00n
XX25 S net323 VDD VNW PHVT11LL_CKT W=610.00n L=40.00n
XX23 CINNN CINN VDD VNW PHVT11LL_CKT W=320.00n L=40.00n
XX21 CINN XNOR net323 VNW PHVT11LL_CKT W=320.00n L=40.00n
XX20 CINNN XOR net323 VNW PHVT11LL_CKT W=320.00n L=40.00n
XX17 CINNN XNOR net319 VNW PHVT11LL_CKT W=320.00n L=40.00n
XX16 BN XOR net319 VNW PHVT11LL_CKT W=320.00n L=40.00n
XX13 CINN CIN VDD VNW PHVT11LL_CKT W=470.00n L=40.00n
XX11 AN B XNOR VNW PHVT11LL_CKT W=400.00n L=40.00n
XX10 ANN BN XNOR VNW PHVT11LL_CKT W=400.00n L=40.00n
XX4 ANN B XOR VNW PHVT11LL_CKT W=400.00n L=40.00n
XX6 AN BN XOR VNW PHVT11LL_CKT W=400.00n L=40.00n
XX3 ANN AN VDD VNW PHVT11LL_CKT W=610.00n L=40.00n
XX1 BN B VDD VNW PHVT11LL_CKT W=610.00n L=40.00n
XX28 AN A VDD VNW PHVT11LL_CKT W=610.00n L=40.00n
.ENDS AD1CINV2_12TH40
.SUBCKT AD1CINV3_12TH40 A B CIN CO S VDD VSS
XX27 CO net319 VSS VPW NHVT11LL_CKT W=0.76u L=40.00n
XX24 S net323 VSS VPW NHVT11LL_CKT W=0.76u L=40.00n
XX22 CINNN CINN VSS VPW NHVT11LL_CKT W=0.38u L=40.00n
XX19 CINN XOR net323 VPW NHVT11LL_CKT W=0.38u L=40.00n
XX18 CINNN XNOR net323 VPW NHVT11LL_CKT W=0.38u L=40.00n
XX15 CINNN XOR net319 VPW NHVT11LL_CKT W=0.38u L=40.00n
XX14 BN XNOR net319 VPW NHVT11LL_CKT W=0.38u L=40.00n